
#======================================================================
# CRYSTAL DATA
#----------------------------------------------------------------------
data_VESTA_phase_1

_chemical_name_common                  'Fe7 C18 N18 O14'
_cell_length_a                         10.166000
_cell_length_b                         10.166000
_cell_length_c                         10.166000
_cell_angle_alpha                      90.000000
_cell_angle_beta                       90.000000
_cell_angle_gamma                      90.000000
_cell_volume                           1050.631368
_space_group_name_H-M_alt              'P 1'
_space_group_IT_number                 1

loop_
_space_group_symop_operation_xyz
   'x, y, z'

loop_
   _atom_site_label
   _atom_site_occupancy
   _atom_site_fract_x
   _atom_site_fract_y
   _atom_site_fract_z
   _atom_site_adp_type
   _atom_site_U_iso_or_equiv
   _atom_site_type_symbol
   Fe1        1.0     0.000000     0.500000     0.500000    Uiso  ? Fe
   Fe2        1.0     0.500000     0.000000     0.500000    Uiso  ? Fe
   Fe3        1.0     0.500000     0.500000     0.000000    Uiso  ? Fe
   Fe4        1.0     0.000000     0.000000     0.000000    Uiso  ? Fe
   Fe5        1.0     0.500000     0.500000     0.500000    Uiso  ? Fe
   Fe6        1.0     0.500000     0.000000     0.000000    Uiso  ? Fe
   Fe7        1.0     0.000000     0.500000     0.000000    Uiso  ? Fe
   Fe8        1.0     0.000000     0.000000     0.500000    Uiso  ? Fe
   C1         1.0     0.310800     0.500000     0.500000    Uiso  ? C
   C2         1.0     0.500000     0.310800     0.500000    Uiso  ? C
   C3         1.0     0.689200     0.500000     0.500000    Uiso  ? C
   C4         1.0     0.500000     0.689200     0.500000    Uiso  ? C
   C5         1.0     0.500000     0.500000     0.310800    Uiso  ? C
   C6         1.0     0.500000     0.500000     0.689200    Uiso  ? C
   C7         1.0     0.310800     0.000000     0.000000    Uiso  ? C
   C8         1.0     0.000000     0.310800     0.000000    Uiso  ? C
   C9         1.0     0.689200     0.000000     0.000000    Uiso  ? C
   C10        1.0     0.000000     0.689200     0.000000    Uiso  ? C
   C11        1.0     0.000000     0.000000     0.310800    Uiso  ? C
   C12        1.0     0.000000     0.000000     0.689200    Uiso  ? C
   C13        1.0     0.188700     0.500000     0.000000    Uiso  ? C
   C14        1.0     0.500000     0.188700     0.000000    Uiso  ? C
   C15        1.0     0.811300     0.500000     0.000000    Uiso  ? C
   C16        1.0     0.500000     0.811300     0.000000    Uiso  ? C
   C17        1.0     0.000000     0.188700     0.500000    Uiso  ? C
   C18        1.0     0.811300     0.000000     0.500000    Uiso  ? C
   C19        1.0     0.000000     0.811300     0.500000    Uiso  ? C
   C20        1.0     0.188700     0.000000     0.500000    Uiso  ? C
   C21        1.0     0.500000     0.000000     0.188700    Uiso  ? C
   C22        1.0     0.500000     0.000000     0.811300    Uiso  ? C
   C23        1.0     0.000000     0.500000     0.811300    Uiso  ? C
   C24        1.0     0.000000     0.500000     0.188700    Uiso  ? C
   N1         1.0     0.200500     0.500000     0.500000    Uiso  ? N
   N2         1.0     0.500000     0.200500     0.500000    Uiso  ? N
   N3         1.0     0.799500     0.500000     0.500000    Uiso  ? N
   N4         1.0     0.500000     0.799500     0.500000    Uiso  ? N
   N5         1.0     0.500000     0.500000     0.200500    Uiso  ? N
   N6         1.0     0.500000     0.500000     0.799500    Uiso  ? N
   N7         1.0     0.299500     0.500000     0.000000    Uiso  ? N
   N8         1.0     0.500000     0.299500     0.000000    Uiso  ? N
   N9         1.0     0.700500     0.500000     0.000000    Uiso  ? N
   N10        1.0     0.500000     0.700500     0.000000    Uiso  ? N
   N11        1.0     0.000000     0.299500     0.500000    Uiso  ? N
   N12        1.0     0.700500     0.000000     0.500000    Uiso  ? N
   N13        1.0     0.000000     0.700500     0.500000    Uiso  ? N
   N14        1.0     0.299500     0.000000     0.500000    Uiso  ? N
   N15        1.0     0.500000     0.000000     0.299500    Uiso  ? N
   N16        1.0     0.500000     0.000000     0.700500    Uiso  ? N
   N17        1.0     0.000000     0.500000     0.700500    Uiso  ? N
   N18        1.0     0.000000     0.500000     0.299500    Uiso  ? N
   N19        1.0     0.200500     0.000000     0.000000    Uiso  ? N
   N20        1.0     0.000000     0.200500     0.000000    Uiso  ? N
   N21        1.0     0.799500     0.000000     0.000000    Uiso  ? N
   N22        1.0     0.000000     0.799500     0.000000    Uiso  ? N
   N23        1.0     0.000000     0.000000     0.200500    Uiso  ? N
   N24        1.0     0.000000     0.000000     0.799500    Uiso  ? N
   K1         1.0     0.250000     0.250000     0.250000    Uiso  ? K
   K2         1.0     0.250000     0.750000     0.250000    Uiso  ? K
   K3         1.0     0.750000     0.250000     0.250000    Uiso  ? K
   K4         1.0     0.750000     0.750000     0.250000    Uiso  ? K
   K5         1.0     0.250000     0.250000     0.750000    Uiso  ? K
   K6         1.0     0.250000     0.750000     0.750000    Uiso  ? K
   K7         1.0     0.750000     0.250000     0.750000    Uiso  ? K
   K8         1.0     0.750000     0.750000     0.750000    Uiso  ? K
